/*--------------------------------*- C++ -*----------------------------------*\
| =========                 |                                                 |
| \\      /  F ield         | OpenFOAM: The Open Source CFD Toolbox           |
|  \\    /   O peration     | Version:  5.x                                   |
|   \\  /    A nd           | Web:      www.OpenFOAM.org                      |
|    \\/     M anipulation  |                                                 |
\*---------------------------------------------------------------------------*/
FoamFile
{
    version     2.0;
    format      ascii;
    class       dictionary;
    location    "constant";
    object      transportProperties;
}
// * * * * * * * * * * * * * * * * * * * * * * * * * * * * * * * * * * * * * //

// 圆柱筒内部充满水的单相流配置
// 颗粒将在水中沉降，形成颗粒-流体两相流动

transportModel  Newtonian;

// 水的物理属性 (20°C标准条件)
nu              [0 2 -1 0 0 0 0] 1e-06;      // 水的运动粘度：1e-6 m²/s
rho             [1 -3 0 0 0 0 0] 1000;       // 水的密度：1000 kg/m³

// CFD-DEM耦合说明：
// - 流体：水 (ρ_f = 1000 kg/m³, μ = 1e-3 Pa⋅s)
// - 颗粒：玻璃球 (ρ_p = 2500 kg/m³) 
// - 密度比：ρ_p/ρ_f = 2.5 (合适的沉降条件)
// - Reynolds数范围：Re = ρ_f⋅U⋅d/μ ≈ 10-1000 (中等Reynolds数)

// ************************************************************************* //