/*--------------------------------*- C++ -*----------------------------------*\
| =========                 |                                                 |
| \\      /  F ield         | OpenFOAM: The Open Source CFD Toolbox           |
|  \\    /   O peration     | Version:  5.x                                   |
|   \\  /    A nd           | Web:      www.OpenFOAM.org                      |
|    \\/     M anipulation  |                                                 |
\*---------------------------------------------------------------------------*/
FoamFile
{
    version     2.0;
    format      ascii;
    class       dictionary;
    location    "constant";
    object      turbulenceProperties;
}
// * * * * * * * * * * * * * * * * * * * * * * * * * * * * * * * * * * * * * //

// 湍流模型配置 - 使用层流模型（颗粒沉降主要是层流）
simulationType laminar;

// 注释：对于颗粒沉降仿真，通常使用层流模型
// 因为颗粒-流体相互作用已经提供了足够的混合
// 如果需要LES或RAS湍流模型，可以切换simulationType

// 备选配置示例：
// simulationType RAS;  // Reynolds-Averaged Simulation
// simulationType LES;  // Large Eddy Simulation

// ************************************************************************* //